!-Generator IDFEditor 1.50
!-Option SortedOrder

!-NOTE: All comments with '!-' are ignored by the IDFEditor and are generated automatically.
!-      Use '!' comments if they need to be retained when using the IDFEditor.


!-   ===========  ALL OBJECTS IN CLASS: VERSION ===========

Version,
    9.1;                     !- Version Identifier


!-   ===========  ALL OBJECTS IN CLASS: SIMULATIONCONTROL ===========

SimulationControl,
    No,                      !- Do Zone Sizing Calculation
    No,                      !- Do System Sizing Calculation
    No,                      !- Do Plant Sizing Calculation
    No,                      !- Run Simulation for Sizing Periods
    Yes;                     !- Run Simulation for Weather File Run Periods


!-   ===========  ALL OBJECTS IN CLASS: BUILDING ===========

Building,
    BUilding,                !- Name
    0,                       !- North Axis {deg}
    Suburbs,                 !- Terrain
    0.04,                    !- Loads Convergence Tolerance Value
    0.4,                     !- Temperature Convergence Tolerance Value {deltaC}
    FullExterior,            !- Solar Distribution
    ,                        !- Maximum Number of Warmup Days
    6;                       !- Minimum Number of Warmup Days


!-   ===========  ALL OBJECTS IN CLASS: SHADOWCALCULATION ===========

ShadowCalculation,
    AverageOverDaysInFrequency,  !- Calculation Method
    20;                      !- Calculation Frequency


!-   ===========  ALL OBJECTS IN CLASS: SURFACECONVECTIONALGORITHM:INSIDE ===========

SurfaceConvectionAlgorithm:Inside,
    TARP;                    !- Algorithm


!-   ===========  ALL OBJECTS IN CLASS: SURFACECONVECTIONALGORITHM:OUTSIDE ===========

SurfaceConvectionAlgorithm:Outside,
    TARP;                    !- Algorithm


!-   ===========  ALL OBJECTS IN CLASS: HEATBALANCEALGORITHM ===========

HeatBalanceAlgorithm,
    ConductionTransferFunction;  !- Algorithm


!-   ===========  ALL OBJECTS IN CLASS: TIMESTEP ===========

Timestep,
    4;                       !- Number of Timesteps per Hour


!-   ===========  ALL OBJECTS IN CLASS: SITE:LOCATION ===========

Site:Location,
    SINGAPORE_-_SGP,         !- Name
    1.37,                    !- Latitude {deg}
    103.98,                  !- Longitude {deg}
    8,                       !- Time Zone {hr}
    16;                      !- Elevation {m}


!-   ===========  ALL OBJECTS IN CLASS: RUNPERIOD ===========

RunPeriod,
    ,                        !- Name
    1,                       !- Begin Month
    1,                       !- Begin Day of Month
    ,                        !- Begin Year
    12,                      !- End Month
    31,                      !- End Day of Month
    ,                        !- End Year
    ,                        !- Day of Week for Start Day
    Yes,                     !- Use Weather File Holidays and Special Days
    Yes,                     !- Use Weather File Daylight Saving Period
    No,                      !- Apply Weekend Holiday Rule
    Yes,                     !- Use Weather File Rain Indicators
    Yes,                     !- Use Weather File Snow Indicators
    No;                      !- Treat Weather as Actual


!-   ===========  ALL OBJECTS IN CLASS: SCHEDULETYPELIMITS ===========

ScheduleTypeLimits,
    Any Number;              !- Name

ScheduleTypeLimits,
    Temperature,             !- Name
    -60,                     !- Lower Limit Value
    200,                     !- Upper Limit Value
    Continuous,              !- Numeric Type
    Temperature;             !- Unit Type


!-   ===========  ALL OBJECTS IN CLASS: SCHEDULE:COMPACT ===========

Schedule:Compact,
    ALWAYS 4,                !- Name
    Any Number,              !- Schedule Type Limits Name
    Through: 12/31,          !- Field 1
    For: AllDays,            !- Field 2
    Until: 24:00,            !- Field 3
    4;                       !- Field 4

Schedule:Compact,
    ALWAYS 20,               !- Name
    Any Number,              !- Schedule Type Limits Name
    Through: 12/31,          !- Field 1
    For: AllDays,            !- Field 2
    Until: 24:00,            !- Field 3
    20;                      !- Field 4

Schedule:Compact,
    ALWAYS 24,               !- Name
    Any Number,              !- Schedule Type Limits Name
    Through: 12/31,          !- Field 1
    For: AllDays,            !- Field 2
    Until: 24:00,            !- Field 3
    24;                      !- Field 4


!-   ===========  ALL OBJECTS IN CLASS: MATERIAL ===========

Material,
    PLASTERBOARD-1,          !- Name
    MediumSmooth,            !- Roughness
    0.012,                   !- Thickness {m}
    0.16,                    !- Conductivity {W/m-K}
    950,                     !- Density {kg/m3}
    840,                     !- Specific Heat {J/kg-K}
    0.9,                     !- Thermal Absorptance
    0.6,                     !- Solar Absorptance
    0.6;                     !- Visible Absorptance

Material,
    FIBERGLASS QUILT-1,      !- Name
    Rough,                   !- Roughness
    0.066,                   !- Thickness {m}
    0.04,                    !- Conductivity {W/m-K}
    12,                      !- Density {kg/m3}
    840,                     !- Specific Heat {J/kg-K}
    0.9,                     !- Thermal Absorptance
    0.6,                     !- Solar Absorptance
    0.6;                     !- Visible Absorptance

Material,
    WOOD SIDING-1,           !- Name
    Rough,                   !- Roughness
    0.009,                   !- Thickness {m}
    0.14,                    !- Conductivity {W/m-K}
    530,                     !- Density {kg/m3}
    900,                     !- Specific Heat {J/kg-K}
    0.9,                     !- Thermal Absorptance
    0.6,                     !- Solar Absorptance
    0.6;                     !- Visible Absorptance

Material,
    PLASTERBOARD-2,          !- Name
    Rough,                   !- Roughness
    0.01,                    !- Thickness {m}
    0.16,                    !- Conductivity {W/m-K}
    950,                     !- Density {kg/m3}
    840,                     !- Specific Heat {J/kg-K}
    0.9,                     !- Thermal Absorptance
    0.6,                     !- Solar Absorptance
    0.6;                     !- Visible Absorptance

Material,
    FIBERGLASS QUILT-2,      !- Name
    Rough,                   !- Roughness
    0.1118,                  !- Thickness {m}
    0.04,                    !- Conductivity {W/m-K}
    12,                      !- Density {kg/m3}
    840,                     !- Specific Heat {J/kg-K}
    0.9,                     !- Thermal Absorptance
    0.6,                     !- Solar Absorptance
    0.6;                     !- Visible Absorptance

Material,
    ROOF DECK,               !- Name
    Rough,                   !- Roughness
    0.019,                   !- Thickness {m}
    0.14,                    !- Conductivity {W/m-K}
    530,                     !- Density {kg/m3}
    900,                     !- Specific Heat {J/kg-K}
    0.9,                     !- Thermal Absorptance
    0.6,                     !- Solar Absorptance
    0.6;                     !- Visible Absorptance

Material,
    HF-C5,                   !- Name
    MediumRough,             !- Roughness
    0.1015,                  !- Thickness {m}
    1.7296,                  !- Conductivity {W/m-K}
    2243,                    !- Density {kg/m3}
    837,                     !- Specific Heat {J/kg-K}
    0.9,                     !- Thermal Absorptance
    0.65,                    !- Solar Absorptance
    0.65;                    !- Visible Absorptance


!-   ===========  ALL OBJECTS IN CLASS: WINDOWMATERIAL:GLAZING ===========

WindowMaterial:Glazing,
    Single glass 3mm,        !- Name
    SpectralAverage,         !- Optical Data Type
    ,                        !- Window Glass Spectral Data Set Name
    0.003,                   !- Thickness {m}
    0.775,                   !- Solar Transmittance at Normal Incidence
    0.071,                   !- Front Side Solar Reflectance at Normal Incidence
    0.071,                   !- Back Side Solar Reflectance at Normal Incidence
    0.881,                   !- Visible Transmittance at Normal Incidence
    0.081,                   !- Front Side Visible Reflectance at Normal Incidence
    0.081,                   !- Back Side Visible Reflectance at Normal Incidence
    0,                       !- Infrared Transmittance at Normal Incidence
    0.84,                    !- Front Side Infrared Hemispherical Emissivity
    0.84,                    !- Back Side Infrared Hemispherical Emissivity
    0.9;                     !- Conductivity {W/m-K}

WindowMaterial:Glazing,
    LoE CLEAR 3MM,           !- Name
    SpectralAverage,         !- Optical Data Type
    ,                        !- Window Glass Spectral Data Set Name
    0.003,                   !- Thickness {m}
    0.63,                    !- Solar Transmittance at Normal Incidence
    0.19,                    !- Front Side Solar Reflectance at Normal Incidence
    0.22,                    !- Back Side Solar Reflectance at Normal Incidence
    0.85,                    !- Visible Transmittance at Normal Incidence
    0.056,                   !- Front Side Visible Reflectance at Normal Incidence
    0.079,                   !- Back Side Visible Reflectance at Normal Incidence
    0,                       !- Infrared Transmittance at Normal Incidence
    0.1,                     !- Front Side Infrared Hemispherical Emissivity
    0.84,                    !- Back Side Infrared Hemispherical Emissivity
    0.9;                     !- Conductivity {W/m-K}

WindowMaterial:Glazing,
    LoE Coating,             !- Name
    SpectralAverage,         !- Optical Data Type
    ,                        !- Window Glass Spectral Data Set Name
    0.000002,                !- Thickness {m}
    0.01,                    !- Solar Transmittance at Normal Incidence
    0.01,                    !- Front Side Solar Reflectance at Normal Incidence
    0.01,                    !- Back Side Solar Reflectance at Normal Incidence
    0.85,                    !- Visible Transmittance at Normal Incidence
    0.056,                   !- Front Side Visible Reflectance at Normal Incidence
    0.079,                   !- Back Side Visible Reflectance at Normal Incidence
    0,                       !- Infrared Transmittance at Normal Incidence
    0.01,                    !- Front Side Infrared Hemispherical Emissivity
    0.84,                    !- Back Side Infrared Hemispherical Emissivity
    8;                       !- Conductivity {W/m-K}

WindowMaterial:Glazing,
    Single LowE L,           !- Name
    SpectralAverage,         !- Optical Data Type
    ,                        !- Window Glass Spectral Data Set Name
    0.003,                   !- Thickness {m}
    0.172,                   !- Solar Transmittance at Normal Incidence
    0.111,                   !- Front Side Solar Reflectance at Normal Incidence
    0.166,                   !- Back Side Solar Reflectance at Normal Incidence
    0.222,                   !- Visible Transmittance at Normal Incidence
    0.091,                   !- Front Side Visible Reflectance at Normal Incidence
    0.116,                   !- Back Side Visible Reflectance at Normal Incidence
    0,                       !- Infrared Transmittance at Normal Incidence
    0.32,                    !- Front Side Infrared Hemispherical Emissivity
    0.1,                     !- Back Side Infrared Hemispherical Emissivity
    0.9;                     !- Conductivity {W/m-K}

WindowMaterial:Glazing,
    Single LowE H,           !- Name
    SpectralAverage,         !- Optical Data Type
    ,                        !- Window Glass Spectral Data Set Name
    0.003,                   !- Thickness {m}
    0.12,                    !- Solar Transmittance at Normal Incidence
    0.077,                   !- Front Side Solar Reflectance at Normal Incidence
    0.165,                   !- Back Side Solar Reflectance at Normal Incidence
    0.222,                   !- Visible Transmittance at Normal Incidence
    0.091,                   !- Front Side Visible Reflectance at Normal Incidence
    0.116,                   !- Back Side Visible Reflectance at Normal Incidence
    0,                       !- Infrared Transmittance at Normal Incidence
    0.56,                    !- Front Side Infrared Hemispherical Emissivity
    0.1,                     !- Back Side Infrared Hemispherical Emissivity
    0.9;                     !- Conductivity {W/m-K}

WindowMaterial:Glazing,
    LoE 3MM,                 !- Name
    SpectralAverage,         !- Optical Data Type
    ,                        !- Window Glass Spectral Data Set Name
    0.003,                   !- Thickness {m}
    0.450,                   !- Solar Transmittance at Normal Incidence
    0.340,                   !- Front Side Solar Reflectance at Normal Incidence
    0.370,                   !- Back Side Solar Reflectance at Normal Incidence
    0.780,                   !- Visible Transmittance at Normal Incidence
    0.070,                   !- Front Side Visible Reflectance at Normal Incidence
    0.060,                   !- Back Side Visible Reflectance at Normal Incidence
    0.0,                     !- Infrared Transmittance at Normal Incidence
    0.84,                    !- Front Side Infrared Hemispherical Emissivity
    0.03,                    !- Back Side Infrared Hemispherical Emissivity
    0.9;                     !- Conductivity {W/m-K}


!-   ===========  ALL OBJECTS IN CLASS: WINDOWMATERIAL:GLAZINGGROUP:THERMOCHROMIC ===========

WindowMaterial:GlazingGroup:Thermochromic,
    Single LowE,             !- Name
    25,                      !- Optical Data Temperature 1 {C}
    Single LowE L,           !- Window Material Glazing Name 1
    30,                      !- Optical Data Temperature 2 {C}
    Single LowE H;           !- Window Material Glazing Name 2


!-   ===========  ALL OBJECTS IN CLASS: WINDOWMATERIAL:GAS ===========

WindowMaterial:Gas,
    GAP,                     !- Name
    Air,                     !- Gas Type
    0.01;                    !- Thickness {m}

WindowMaterial:Gas,
    GAP-GLASS,               !- Name
    Custom,                  !- Gas Type
    0.0000001,               !- Thickness {m}
    0.9,                     !- Conductivity Coefficient A {W/m-K}
    ,                        !- Conductivity Coefficient B {W/m-K2}
    ,                        !- Conductivity Coefficient C {W/m-K3}
    100000000000,            !- Viscosity Coefficient A {kg/m-s}
    ,                        !- Viscosity Coefficient B {kg/m-s-K}
    ,                        !- Viscosity Coefficient C {kg/m-s-K2}
    840,                     !- Specific Heat Coefficient A {J/kg-K}
    ,                        !- Specific Heat Coefficient B {J/kg-K2}
    ,                        !- Specific Heat Coefficient C {J/kg-K3}
    60;                      !- Molecular Weight {g/mol}


!-   ===========  ALL OBJECTS IN CLASS: CONSTRUCTION ===========

Construction,
    LTWALL,                  !- Name
    WOOD SIDING-1,           !- Outside Layer
    FIBERGLASS QUILT-1,      !- Layer 2
    PLASTERBOARD-1;          !- Layer 3

Construction,
    LTFLOOR,                 !- Name
    HF-C5;                   !- Outside Layer

Construction,
    LTROOF,                  !- Name
    ROOF DECK,               !- Outside Layer
    FIBERGLASS QUILT-2,      !- Layer 2
    PLASTERBOARD-2;          !- Layer 3

Construction,
    WINDOW,                  !- Name
    Single glass 3mm;        !- Outside Layer


!-   ===========  ALL OBJECTS IN CLASS: GLOBALGEOMETRYRULES ===========

GlobalGeometryRules,
    UpperLeftCorner,         !- Starting Vertex Position
    Counterclockwise,        !- Vertex Entry Direction
    World;                   !- Coordinate System


!-   ===========  ALL OBJECTS IN CLASS: ZONE ===========

Zone,
    ZONE ONE,                !- Name
    0,                       !- Direction of Relative North {deg}
    0,                       !- X Origin {m}
    0,                       !- Y Origin {m}
    0,                       !- Z Origin {m}
    1,                       !- Type
    1,                       !- Multiplier
    2.7,                     !- Ceiling Height {m}
    129.6;                   !- Volume {m3}


!-   ===========  ALL OBJECTS IN CLASS: BUILDINGSURFACE:DETAILED ===========

BuildingSurface:Detailed,
    SURFACE NORTH,           !- Name
    Wall,                    !- Surface Type
    LTWALL,                  !- Construction Name
    ZONE ONE,                !- Zone Name
    Outdoors,                !- Outside Boundary Condition
    ,                        !- Outside Boundary Condition Object
    SunExposed,              !- Sun Exposure
    WindExposed,             !- Wind Exposure
    0.5,                     !- View Factor to Ground
    4,                       !- Number of Vertices
    8,                       !- Vertex 1 X-coordinate {m}
    6,                       !- Vertex 1 Y-coordinate {m}
    2.7,                     !- Vertex 1 Z-coordinate {m}
    8,                       !- Vertex 2 X-coordinate {m}
    6,                       !- Vertex 2 Y-coordinate {m}
    0,                       !- Vertex 2 Z-coordinate {m}
    0,                       !- Vertex 3 X-coordinate {m}
    6,                       !- Vertex 3 Y-coordinate {m}
    0,                       !- Vertex 3 Z-coordinate {m}
    0,                       !- Vertex 4 X-coordinate {m}
    6,                       !- Vertex 4 Y-coordinate {m}
    2.7;                     !- Vertex 4 Z-coordinate {m}

BuildingSurface:Detailed,
    ZONE SURFACE EAST,       !- Name
    Wall,                    !- Surface Type
    LTWALL,                  !- Construction Name
    ZONE ONE,                !- Zone Name
    Outdoors,                !- Outside Boundary Condition
    ,                        !- Outside Boundary Condition Object
    SunExposed,              !- Sun Exposure
    WindExposed,             !- Wind Exposure
    0.5,                     !- View Factor to Ground
    4,                       !- Number of Vertices
    8,                       !- Vertex 1 X-coordinate {m}
    0,                       !- Vertex 1 Y-coordinate {m}
    2.7,                     !- Vertex 1 Z-coordinate {m}
    8,                       !- Vertex 2 X-coordinate {m}
    0,                       !- Vertex 2 Y-coordinate {m}
    0,                       !- Vertex 2 Z-coordinate {m}
    8,                       !- Vertex 3 X-coordinate {m}
    6,                       !- Vertex 3 Y-coordinate {m}
    0,                       !- Vertex 3 Z-coordinate {m}
    8,                       !- Vertex 4 X-coordinate {m}
    6,                       !- Vertex 4 Y-coordinate {m}
    2.7;                     !- Vertex 4 Z-coordinate {m}

BuildingSurface:Detailed,
    ZONE SURFACE SOUTH,      !- Name
    Wall,                    !- Surface Type
    LTWALL,                  !- Construction Name
    ZONE ONE,                !- Zone Name
    Outdoors,                !- Outside Boundary Condition
    ,                        !- Outside Boundary Condition Object
    SunExposed,              !- Sun Exposure
    WindExposed,             !- Wind Exposure
    0.5,                     !- View Factor to Ground
    4,                       !- Number of Vertices
    0,                       !- Vertex 1 X-coordinate {m}
    0,                       !- Vertex 1 Y-coordinate {m}
    2.7,                     !- Vertex 1 Z-coordinate {m}
    0,                       !- Vertex 2 X-coordinate {m}
    0,                       !- Vertex 2 Y-coordinate {m}
    0,                       !- Vertex 2 Z-coordinate {m}
    8,                       !- Vertex 3 X-coordinate {m}
    0,                       !- Vertex 3 Y-coordinate {m}
    0,                       !- Vertex 3 Z-coordinate {m}
    8,                       !- Vertex 4 X-coordinate {m}
    0,                       !- Vertex 4 Y-coordinate {m}
    2.7;                     !- Vertex 4 Z-coordinate {m}

BuildingSurface:Detailed,
    ZONE SURFACE WEST,       !- Name
    Wall,                    !- Surface Type
    LTWALL,                  !- Construction Name
    ZONE ONE,                !- Zone Name
    Outdoors,                !- Outside Boundary Condition
    ,                        !- Outside Boundary Condition Object
    SunExposed,              !- Sun Exposure
    WindExposed,             !- Wind Exposure
    0.5,                     !- View Factor to Ground
    4,                       !- Number of Vertices
    0,                       !- Vertex 1 X-coordinate {m}
    6,                       !- Vertex 1 Y-coordinate {m}
    2.7,                     !- Vertex 1 Z-coordinate {m}
    0,                       !- Vertex 2 X-coordinate {m}
    6,                       !- Vertex 2 Y-coordinate {m}
    0,                       !- Vertex 2 Z-coordinate {m}
    0,                       !- Vertex 3 X-coordinate {m}
    0,                       !- Vertex 3 Y-coordinate {m}
    0,                       !- Vertex 3 Z-coordinate {m}
    0,                       !- Vertex 4 X-coordinate {m}
    0,                       !- Vertex 4 Y-coordinate {m}
    2.7;                     !- Vertex 4 Z-coordinate {m}

BuildingSurface:Detailed,
    ZONE SURFACE FLOOR,      !- Name
    Floor,                   !- Surface Type
    LTFLOOR,                 !- Construction Name
    ZONE ONE,                !- Zone Name
    Outdoors,                !- Outside Boundary Condition
    ,                        !- Outside Boundary Condition Object
    NoSun,                   !- Sun Exposure
    NoWind,                  !- Wind Exposure
    0,                       !- View Factor to Ground
    4,                       !- Number of Vertices
    0,                       !- Vertex 1 X-coordinate {m}
    0,                       !- Vertex 1 Y-coordinate {m}
    0,                       !- Vertex 1 Z-coordinate {m}
    0,                       !- Vertex 2 X-coordinate {m}
    6,                       !- Vertex 2 Y-coordinate {m}
    0,                       !- Vertex 2 Z-coordinate {m}
    8,                       !- Vertex 3 X-coordinate {m}
    6,                       !- Vertex 3 Y-coordinate {m}
    0,                       !- Vertex 3 Z-coordinate {m}
    8,                       !- Vertex 4 X-coordinate {m}
    0,                       !- Vertex 4 Y-coordinate {m}
    0;                       !- Vertex 4 Z-coordinate {m}

BuildingSurface:Detailed,
    ZONE SURFACE ROOF,       !- Name
    Roof,                    !- Surface Type
    LTROOF,                  !- Construction Name
    ZONE ONE,                !- Zone Name
    Outdoors,                !- Outside Boundary Condition
    ,                        !- Outside Boundary Condition Object
    SunExposed,              !- Sun Exposure
    WindExposed,             !- Wind Exposure
    0,                       !- View Factor to Ground
    4,                       !- Number of Vertices
    0,                       !- Vertex 1 X-coordinate {m}
    6,                       !- Vertex 1 Y-coordinate {m}
    2.7,                     !- Vertex 1 Z-coordinate {m}
    0,                       !- Vertex 2 X-coordinate {m}
    0,                       !- Vertex 2 Y-coordinate {m}
    2.7,                     !- Vertex 2 Z-coordinate {m}
    8,                       !- Vertex 3 X-coordinate {m}
    0,                       !- Vertex 3 Y-coordinate {m}
    2.7,                     !- Vertex 3 Z-coordinate {m}
    8,                       !- Vertex 4 X-coordinate {m}
    6,                       !- Vertex 4 Y-coordinate {m}
    2.7;                     !- Vertex 4 Z-coordinate {m}


!-   ===========  ALL OBJECTS IN CLASS: FENESTRATIONSURFACE:DETAILED ===========

FenestrationSurface:Detailed,
    SOUTH WINDOW,            !- Name
    Window,                  !- Surface Type
    WINDOW,                  !- Construction Name
    ZONE SURFACE SOUTH,      !- Building Surface Name
    ,                        !- Outside Boundary Condition Object
    Autocalculate,           !- View Factor to Ground
    ,                        !- Frame and Divider Name
    1,                       !- Multiplier
    4,                       !- Number of Vertices
    2.5,                     !- Vertex 1 X-coordinate {m}
    0,                       !- Vertex 1 Y-coordinate {m}
    2.35,                    !- Vertex 1 Z-coordinate {m}
    2.5,                     !- Vertex 2 X-coordinate {m}
    0,                       !- Vertex 2 Y-coordinate {m}
    0.35,                    !- Vertex 2 Z-coordinate {m}
    5.5,                     !- Vertex 3 X-coordinate {m}
    0,                       !- Vertex 3 Y-coordinate {m}
    0.35,                    !- Vertex 3 Z-coordinate {m}
    5.5,                     !- Vertex 4 X-coordinate {m}
    0,                       !- Vertex 4 Y-coordinate {m}
    2.35;                    !- Vertex 4 Z-coordinate {m}

FenestrationSurface:Detailed,
    NORTH WINDOW,            !- Name
    Window,                  !- Surface Type
    WINDOW,                  !- Construction Name
    SURFACE NORTH,           !- Building Surface Name
    ,                        !- Outside Boundary Condition Object
    Autocalculate,           !- View Factor to Ground
    ,                        !- Frame and Divider Name
    1,                       !- Multiplier
    4,                       !- Number of Vertices
    5.5,                     !- Vertex 1 X-coordinate {m}
    6,                       !- Vertex 1 Y-coordinate {m}
    2.35,                    !- Vertex 1 Z-coordinate {m}
    5.5,                     !- Vertex 2 X-coordinate {m}
    6,                       !- Vertex 2 Y-coordinate {m}
    0.35,                    !- Vertex 2 Z-coordinate {m}
    2.5,                     !- Vertex 3 X-coordinate {m}
    6,                       !- Vertex 3 Y-coordinate {m}
    0.35,                    !- Vertex 3 Z-coordinate {m}
    2.5,                     !- Vertex 4 X-coordinate {m}
    6,                       !- Vertex 4 Y-coordinate {m}
    2.35;                    !- Vertex 4 Z-coordinate {m}

FenestrationSurface:Detailed,
    EAST WINDOW,             !- Name
    Window,                  !- Surface Type
    WINDOW,                  !- Construction Name
    ZONE SURFACE EAST,       !- Building Surface Name
    ,                        !- Outside Boundary Condition Object
    Autocalculate,           !- View Factor to Ground
    ,                        !- Frame and Divider Name
    1,                       !- Multiplier
    4,                       !- Number of Vertices
    8,                       !- Vertex 1 X-coordinate {m}
    1.5,                     !- Vertex 1 Y-coordinate {m}
    2.35,                    !- Vertex 1 Z-coordinate {m}
    8,                       !- Vertex 2 X-coordinate {m}
    1.5,                     !- Vertex 2 Y-coordinate {m}
    0.35,                    !- Vertex 2 Z-coordinate {m}
    8,                       !- Vertex 3 X-coordinate {m}
    4.5,                     !- Vertex 3 Y-coordinate {m}
    0.35,                    !- Vertex 3 Z-coordinate {m}
    8,                       !- Vertex 4 X-coordinate {m}
    4.5,                     !- Vertex 4 Y-coordinate {m}
    2.35;                    !- Vertex 4 Z-coordinate {m}

FenestrationSurface:Detailed,
    WEST WINDOW,             !- Name
    Window,                  !- Surface Type
    WINDOW,                  !- Construction Name
    ZONE SURFACE WEST,       !- Building Surface Name
    ,                        !- Outside Boundary Condition Object
    Autocalculate,           !- View Factor to Ground
    ,                        !- Frame and Divider Name
    1,                       !- Multiplier
    4,                       !- Number of Vertices
    0,                       !- Vertex 1 X-coordinate {m}
    4.5,                     !- Vertex 1 Y-coordinate {m}
    2.35,                    !- Vertex 1 Z-coordinate {m}
    0,                       !- Vertex 2 X-coordinate {m}
    4.5,                     !- Vertex 2 Y-coordinate {m}
    0.35,                    !- Vertex 2 Z-coordinate {m}
    0,                       !- Vertex 3 X-coordinate {m}
    1.5,                     !- Vertex 3 Y-coordinate {m}
    0.35,                    !- Vertex 3 Z-coordinate {m}
    0,                       !- Vertex 4 X-coordinate {m}
    1.5,                     !- Vertex 4 Y-coordinate {m}
    2.35;                    !- Vertex 4 Z-coordinate {m}


!-   ===========  ALL OBJECTS IN CLASS: ZONECONTROL:THERMOSTAT ===========

ZoneControl:Thermostat,
    ZONE ONE Thermostat,     !- Name
    ZONE ONE,                !- Zone or ZoneList Name
    ALWAYS 4,                !- Control Type Schedule Name
    ThermostatSetpoint:DualSetpoint,  !- Control 1 Object Type
    Office Thermostat Dual SP Control;  !- Control 1 Name


!-   ===========  ALL OBJECTS IN CLASS: THERMOSTATSETPOINT:DUALSETPOINT ===========

ThermostatSetpoint:DualSetpoint,
    Office Thermostat Dual SP Control,  !- Name
    ALWAYS 20,               !- Heating Setpoint Temperature Schedule Name
    ALWAYS 24;               !- Cooling Setpoint Temperature Schedule Name
